Version 4
SHEET 1 880 680
WIRE 160 0 128 0
WIRE 256 0 240 0
WIRE 32 112 -16 112
WIRE 128 112 128 0
WIRE 128 112 112 112
WIRE 160 112 128 112
WIRE 256 128 256 0
WIRE 256 128 224 128
WIRE 160 144 128 144
WIRE -16 160 -16 112
WIRE 128 192 128 144
WIRE -16 256 -16 240
FLAG -16 256 0
FLAG 128 192 0
FLAG 256 128 o
FLAG -16 112 i
SYMBOL res 256 -16 R90
WINDOW 0 0 56 VBottom 2
WINDOW 3 32 56 VTop 2
SYMATTR InstName R1
SYMATTR Value 10G
SYMBOL res 128 96 R90
WINDOW 0 0 56 VBottom 2
WINDOW 3 32 56 VTop 2
SYMATTR InstName R2
SYMATTR Value 1G
SYMBOL voltage -16 144 R0
WINDOW 123 0 0 Left 0
WINDOW 39 0 0 Left 0
SYMATTR InstName V1
SYMATTR Value 0
SYMBOL OPAMPF2022 192 128 R0
SYMATTR InstName U1
TEXT 64 232 Left 2 !.dc V1 -3 3 0.01
